OPT_V9/4ts_w_storgae_myc_NEW_PARAM/powerflow_results_t4.txt
Pandapower Network Debug Info
==================================================

BUS:
       vm_pu  va_degree      p_mw    q_mvar
0   1.004397   0.381556 -0.007406  0.000864
1   1.004761   0.521201  0.001578  0.001655
2   1.007911   0.712236 -0.003996  0.000617
3   1.005862   0.511204 -0.003035  0.001057
4   1.002383   0.343257 -0.002484  0.001452
5   0.998333   0.298021 -0.003354  0.003871
6   0.996287   0.301685  0.001421  0.001181
7   1.002727   0.235298 -0.005489  0.001661
8   1.000751   0.107713 -0.005595  0.002587
9   0.999948   0.003184  0.002562  0.011174
10  0.999939   0.003461  0.003374  0.009993
11  0.999933   0.003647  0.004440  0.010098
12  0.999906   0.005983  0.002972  0.005426
13  0.999884   0.006461  0.005356  0.010623
14  0.999890   0.006280  0.009658  0.012523
15  0.999974   0.002157  0.000000  0.000000
16  0.999975   0.002160  0.000000  0.000000
17  0.999908   0.005922  0.000000  0.000000
18  0.999909   0.005928  0.000000  0.000000
19  1.000000   0.000000  0.002349 -0.040548
20  1.000000   0.000006  0.000000  0.000000
21  1.000000   0.000000 -0.002580 -0.044384
22  1.000000   0.000006  0.000000  0.000000
--------------------------------------------------

LINE:
    p_from_mw  q_from_mvar   p_to_mw  q_to_mvar         pl_mw       ql_mvar  i_from_ka   i_to_ka      i_ka  vm_from_pu  va_from_degree  vm_to_pu  va_to_degree  loading_percent
0   -0.002359     0.036548  0.002360  -0.036547  1.311964e-06  1.022960e-06   0.001410  0.001410  0.001410    1.000000        0.000006  0.999974      0.002157         0.612890
1    0.002570     0.040384 -0.002566  -0.040381  4.404625e-06  3.434359e-06   0.001558  0.001558  0.001558    1.000000        0.000006  0.999908      0.005922         0.677188
2    0.010376     0.031266 -0.010375  -0.031265  8.392341e-07  6.543646e-07   0.001268  0.001268  0.001268    0.999974        0.002157  0.999948      0.003184         0.551306
3    0.002972     0.005426 -0.002972  -0.005426  1.323909e-08  1.032274e-08   0.000238  0.000238  0.000238    0.999908        0.005922  0.999906      0.005983         0.103544
4    0.015015     0.023146 -0.015014  -0.023146  4.162913e-07  3.245892e-07   0.001062  0.001062  0.001062    0.999908        0.005922  0.999890      0.006280         0.461751
5   -0.012746     0.004281  0.012831  -0.004215  8.456571e-05  6.593728e-05   0.019408  0.019408  0.019408    0.999975        0.002160  1.004397      0.381556         8.438310
6   -0.001908     0.005072  0.001931  -0.005054  2.278569e-05  1.776638e-05   0.007822  0.007822  0.007822    0.999909        0.005928  0.998333      0.298021         3.400971
7   -0.005467     0.001678  0.005489  -0.001661  2.210140e-05  1.723282e-05   0.008255  0.008255  0.008255    0.999909        0.005928  1.002727      0.235298         3.589337
8   -0.008055     0.004058  0.008069  -0.004047  1.399022e-05  1.090840e-05   0.013020  0.013020  0.013020    0.999909        0.005928  1.000751      0.107713         5.660809
9   -0.007813    -0.020091  0.007814   0.020092  1.607284e-07  1.253226e-07   0.000830  0.000830  0.000830    0.999939        0.003461  0.999948      0.003184         0.360778
10  -0.004440    -0.010098  0.004440   0.010098  5.951728e-08  4.640660e-08   0.000425  0.000425  0.000425    0.999933        0.003647  0.999939      0.003461         0.184611
11   0.005356     0.010623 -0.005356  -0.010623  6.923355e-08  5.398254e-08   0.000458  0.000458  0.000458    0.999890        0.006280  0.999884      0.006461         0.199111
12   0.002403    -0.002284 -0.002397   0.002289  6.440640e-06  5.021873e-06   0.004762  0.004762  0.004762    1.004761        0.521201  1.004397      0.381556         2.070584
13   0.003035    -0.001057 -0.003029   0.001062  6.817664e-06  5.315845e-06   0.004612  0.004612  0.004612    1.005862        0.511204  1.004397      0.381556         2.005320
14   0.003996    -0.000617 -0.003982   0.000628  1.455944e-05  1.135224e-05   0.005791  0.005791  0.005791    1.007911        0.712236  1.004761      0.521201         2.517660
15  -0.002474     0.001460  0.002484  -0.001452  1.002686e-05  7.818104e-06   0.004143  0.004143  0.004143    1.000751        0.107713  1.002383      0.343257         1.801493
16  -0.001421    -0.001181  0.001424   0.001183  2.993234e-06  2.333874e-06   0.002676  0.002676  0.002676    0.996287        0.301685  0.998333      0.298021         1.163609
--------------------------------------------------

TRAFO:
    p_hv_mw  q_hv_mvar   p_lv_mw  q_lv_mvar    pl_mw  ql_mvar   i_hv_ka   i_lv_ka  vm_hv_pu  va_hv_degree  vm_lv_pu  va_lv_degree  loading_percent
0 -0.012736   0.005281  0.012746  -0.004281  0.00001    0.001  0.000531  0.019408  0.999974      0.002157  0.999975      0.002160         0.137880
1 -0.015420   0.011808  0.015430  -0.010808  0.00001    0.001  0.000748  0.027194  0.999908      0.005922  0.999909      0.005928         0.194238
2 -0.002349   0.040548  0.002359  -0.036548  0.00001    0.004  0.000335  0.001410  1.000000      0.000000  1.000000      0.000006         0.101539
3  0.002580   0.044384 -0.002570  -0.040384  0.00001    0.004  0.000367  0.001558  1.000000      0.000000  1.000000      0.000006         0.111148
--------------------------------------------------
